<?xml version="1.0" encoding="UTF-8"?>

<!-- generated on 2022-09-19 20:42:21 by Eclipse SUMO jtrrouter Version 1.14.1
<configuration xmlns:xsi="http://www.w3.org/2001/XMLSchema-instance" xsi:noNamespaceSchemaLocation="http://sumo.dlr.de/xsd/jtrrouterConfiguration.xsd">

    <input>
        <net-file value="environment.net.xml"/>
        <route-files value="demo.flow.xml"/>
        <turn-ratio-files value="demo.turn.xml"/>
    </input>

    <output>
        <output-file value="demo.rou.xml"/>
    </output>

    <time>
        <begin value="0"/>
        <end value="3600"/>
    </time>

</configuration>
-->

<routes xmlns:xsi="http://www.w3.org/2001/XMLSchema-instance" xsi:noNamespaceSchemaLocation="http://sumo.dlr.de/xsd/routes_file.xsd">
    <vehicle id="1.0" depart="0.00" departLane="best" color="red">
        <route edges="W2TL TL2S"/>
    </vehicle>
    <vehicle id="2.0" depart="0.00" departLane="best" color="green">
        <route edges="S2TL TL2N"/>
    </vehicle>
    <vehicle id="3.0" depart="0.00" departLane="best" color="blue">
        <route edges="E2TL TL2N"/>
    </vehicle>
    <vehicle id="4.0" depart="0.00" departLane="best" color="yellow">
        <route edges="N2TL TL2S"/>
    </vehicle>
    <vehicle id="2.1" depart="3.17" departLane="best" color="green">
        <route edges="S2TL TL2N"/>
    </vehicle>
    <vehicle id="4.1" depart="4.49" departLane="best" color="yellow">
        <route edges="N2TL TL2E"/>
    </vehicle>
    <vehicle id="3.1" depart="5.85" departLane="best" color="blue">
        <route edges="E2TL TL2S"/>
    </vehicle>
    <vehicle id="2.2" depart="6.34" departLane="best" color="green">
        <route edges="S2TL TL2N"/>
    </vehicle>
    <vehicle id="4.2" depart="8.99" departLane="best" color="yellow">
        <route edges="N2TL TL2S"/>
    </vehicle>
    <vehicle id="2.3" depart="9.51" departLane="best" color="green">
        <route edges="S2TL TL2N"/>
    </vehicle>
    <vehicle id="3.2" depart="11.71" departLane="best" color="blue">
        <route edges="E2TL TL2N"/>
    </vehicle>
    <vehicle id="2.4" depart="12.68" departLane="best" color="green">
        <route edges="S2TL TL2N"/>
    </vehicle>
    <vehicle id="4.3" depart="13.48" departLane="best" color="yellow">
        <route edges="N2TL TL2S"/>
    </vehicle>
    <vehicle id="1.1" depart="13.79" departLane="best" color="red">
        <route edges="W2TL TL2E"/>
    </vehicle>
    <vehicle id="2.5" depart="15.86" departLane="best" color="green">
        <route edges="S2TL TL2N"/>
    </vehicle>
    <vehicle id="3.3" depart="17.56" departLane="best" color="blue">
        <route edges="E2TL TL2S"/>
    </vehicle>
    <vehicle id="4.4" depart="17.98" departLane="best" color="yellow">
        <route edges="N2TL TL2E"/>
    </vehicle>
    <vehicle id="2.6" depart="19.03" departLane="best" color="green">
        <route edges="S2TL TL2N"/>
    </vehicle>
    <vehicle id="2.7" depart="22.20" departLane="best" color="green">
        <route edges="S2TL TL2N"/>
    </vehicle>
    <vehicle id="4.5" depart="22.47" departLane="best" color="yellow">
        <route edges="N2TL TL2S"/>
    </vehicle>
    <vehicle id="3.4" depart="23.41" departLane="best" color="blue">
        <route edges="E2TL TL2N"/>
    </vehicle>
    <vehicle id="2.8" depart="25.37" departLane="best" color="green">
        <route edges="S2TL TL2N"/>
    </vehicle>
    <vehicle id="4.6" depart="26.96" departLane="best" color="yellow">
        <route edges="N2TL TL2S"/>
    </vehicle>
    <vehicle id="1.2" depart="27.59" departLane="best" color="red">
        <route edges="W2TL TL2N"/>
    </vehicle>
    <vehicle id="2.9" depart="28.54" departLane="best" color="green">
        <route edges="S2TL TL2W"/>
    </vehicle>
    <vehicle id="3.5" depart="29.27" departLane="best" color="blue">
        <route edges="E2TL TL2S"/>
    </vehicle>
    <vehicle id="4.7" depart="31.46" departLane="best" color="yellow">
        <route edges="N2TL TL2S"/>
    </vehicle>
    <vehicle id="2.10" depart="31.71" departLane="best" color="green">
        <route edges="S2TL TL2N"/>
    </vehicle>
    <vehicle id="2.11" depart="34.88" departLane="best" color="green">
        <route edges="S2TL TL2N"/>
    </vehicle>
    <vehicle id="3.6" depart="35.12" departLane="best" color="blue">
        <route edges="E2TL TL2S"/>
    </vehicle>
    <vehicle id="4.8" depart="35.95" departLane="best" color="yellow">
        <route edges="N2TL TL2E"/>
    </vehicle>
    <vehicle id="2.12" depart="38.05" departLane="best" color="green">
        <route edges="S2TL TL2N"/>
    </vehicle>
    <vehicle id="4.9" depart="40.45" departLane="best" color="yellow">
        <route edges="N2TL TL2S"/>
    </vehicle>
    <vehicle id="3.7" depart="40.97" departLane="best" color="blue">
        <route edges="E2TL TL2S"/>
    </vehicle>
    <vehicle id="2.13" depart="41.22" departLane="best" color="green">
        <route edges="S2TL TL2W"/>
    </vehicle>
    <vehicle id="1.3" depart="41.38" departLane="best" color="red">
        <route edges="W2TL TL2E"/>
    </vehicle>
    <vehicle id="2.14" depart="44.39" departLane="best" color="green">
        <route edges="S2TL TL2N"/>
    </vehicle>
    <vehicle id="4.10" depart="44.94" departLane="best" color="yellow">
        <route edges="N2TL TL2S"/>
    </vehicle>
    <vehicle id="3.8" depart="46.82" departLane="best" color="blue">
        <route edges="E2TL TL2N"/>
    </vehicle>
    <vehicle id="2.15" depart="47.57" departLane="best" color="green">
        <route edges="S2TL TL2N"/>
    </vehicle>
    <vehicle id="4.11" depart="49.43" departLane="best" color="yellow">
        <route edges="N2TL TL2S"/>
    </vehicle>
    <vehicle id="2.16" depart="50.74" departLane="best" color="green">
        <route edges="S2TL TL2W"/>
    </vehicle>
    <vehicle id="3.9" depart="52.68" departLane="best" color="blue">
        <route edges="E2TL TL2S"/>
    </vehicle>
    <vehicle id="2.17" depart="53.91" departLane="best" color="green">
        <route edges="S2TL TL2N"/>
    </vehicle>
    <vehicle id="4.12" depart="53.93" departLane="best" color="yellow">
        <route edges="N2TL TL2S"/>
    </vehicle>
    <vehicle id="1.4" depart="55.17" departLane="best" color="red">
        <route edges="W2TL TL2N"/>
    </vehicle>
    <vehicle id="2.18" depart="57.08" departLane="best" color="green">
        <route edges="S2TL TL2N"/>
    </vehicle>
    <vehicle id="4.13" depart="58.42" departLane="best" color="yellow">
        <route edges="N2TL TL2S"/>
    </vehicle>
    <vehicle id="3.10" depart="58.53" departLane="best" color="blue">
        <route edges="E2TL TL2N"/>
    </vehicle>
    <vehicle id="2.19" depart="60.25" departLane="best" color="green">
        <route edges="S2TL TL2N"/>
    </vehicle>
    <vehicle id="4.14" depart="62.92" departLane="best" color="yellow">
        <route edges="N2TL TL2S"/>
    </vehicle>
    <vehicle id="2.20" depart="63.42" departLane="best" color="green">
        <route edges="S2TL TL2N"/>
    </vehicle>
    <vehicle id="3.11" depart="64.38" departLane="best" color="blue">
        <route edges="E2TL TL2S"/>
    </vehicle>
    <vehicle id="2.21" depart="66.59" departLane="best" color="green">
        <route edges="S2TL TL2W"/>
    </vehicle>
    <vehicle id="4.15" depart="67.41" departLane="best" color="yellow">
        <route edges="N2TL TL2W"/>
    </vehicle>
    <vehicle id="1.5" depart="68.97" departLane="best" color="red">
        <route edges="W2TL TL2E"/>
    </vehicle>
    <vehicle id="2.22" depart="69.76" departLane="best" color="green">
        <route edges="S2TL TL2N"/>
    </vehicle>
    <vehicle id="3.12" depart="70.24" departLane="best" color="blue">
        <route edges="E2TL TL2S"/>
    </vehicle>
    <vehicle id="4.16" depart="71.90" departLane="best" color="yellow">
        <route edges="N2TL TL2S"/>
    </vehicle>
    <vehicle id="2.23" depart="72.93" departLane="best" color="green">
        <route edges="S2TL TL2W"/>
    </vehicle>
    <vehicle id="3.13" depart="76.09" departLane="best" color="blue">
        <route edges="E2TL TL2S"/>
    </vehicle>
    <vehicle id="2.24" depart="76.10" departLane="best" color="green">
        <route edges="S2TL TL2N"/>
    </vehicle>
    <vehicle id="4.17" depart="76.40" departLane="best" color="yellow">
        <route edges="N2TL TL2S"/>
    </vehicle>
    <vehicle id="2.25" depart="79.28" departLane="best" color="green">
        <route edges="S2TL TL2E"/>
    </vehicle>
    <vehicle id="4.18" depart="80.89" departLane="best" color="yellow">
        <route edges="N2TL TL2S"/>
    </vehicle>
    <vehicle id="3.14" depart="81.94" departLane="best" color="blue">
        <route edges="E2TL TL2S"/>
    </vehicle>
    <vehicle id="2.26" depart="82.45" departLane="best" color="green">
        <route edges="S2TL TL2W"/>
    </vehicle>
    <vehicle id="1.6" depart="82.76" departLane="best" color="red">
        <route edges="W2TL TL2E"/>
    </vehicle>
    <vehicle id="4.19" depart="85.39" departLane="best" color="yellow">
        <route edges="N2TL TL2S"/>
    </vehicle>
    <vehicle id="2.27" depart="85.62" departLane="best" color="green">
        <route edges="S2TL TL2W"/>
    </vehicle>
    <vehicle id="3.15" depart="87.80" departLane="best" color="blue">
        <route edges="E2TL TL2S"/>
    </vehicle>
    <vehicle id="2.28" depart="88.79" departLane="best" color="green">
        <route edges="S2TL TL2N"/>
    </vehicle>
    <vehicle id="4.20" depart="89.88" departLane="best" color="yellow">
        <route edges="N2TL TL2S"/>
    </vehicle>
    <vehicle id="2.29" depart="91.96" departLane="best" color="green">
        <route edges="S2TL TL2N"/>
    </vehicle>
    <vehicle id="3.16" depart="93.65" departLane="best" color="blue">
        <route edges="E2TL TL2S"/>
    </vehicle>
    <vehicle id="4.21" depart="94.37" departLane="best" color="yellow">
        <route edges="N2TL TL2S"/>
    </vehicle>
    <vehicle id="2.30" depart="95.13" departLane="best" color="green">
        <route edges="S2TL TL2E"/>
    </vehicle>
    <vehicle id="1.7" depart="96.55" departLane="best" color="red">
        <route edges="W2TL TL2E"/>
    </vehicle>
    <vehicle id="2.31" depart="98.30" departLane="best" color="green">
        <route edges="S2TL TL2N"/>
    </vehicle>
    <vehicle id="4.22" depart="98.87" departLane="best" color="yellow">
        <route edges="N2TL TL2S"/>
    </vehicle>
    <vehicle id="3.17" depart="99.50" departLane="best" color="blue">
        <route edges="E2TL TL2S"/>
    </vehicle>
    <vehicle id="2.32" depart="101.47" departLane="best" color="green">
        <route edges="S2TL TL2N"/>
    </vehicle>
    <vehicle id="4.23" depart="103.36" departLane="best" color="yellow">
        <route edges="N2TL TL2S"/>
    </vehicle>
    <vehicle id="2.33" depart="104.64" departLane="best" color="green">
        <route edges="S2TL TL2N"/>
    </vehicle>
    <vehicle id="3.18" depart="105.35" departLane="best" color="blue">
        <route edges="E2TL TL2S"/>
    </vehicle>
    <vehicle id="2.34" depart="107.81" departLane="best" color="green">
        <route edges="S2TL TL2N"/>
    </vehicle>
    <vehicle id="4.24" depart="107.86" departLane="best" color="yellow">
        <route edges="N2TL TL2S"/>
    </vehicle>
    <vehicle id="1.8" depart="110.34" departLane="best" color="red">
        <route edges="W2TL TL2S"/>
    </vehicle>
    <vehicle id="2.35" depart="110.99" departLane="best" color="green">
        <route edges="S2TL TL2N"/>
    </vehicle>
    <vehicle id="3.19" depart="111.21" departLane="best" color="blue">
        <route edges="E2TL TL2S"/>
    </vehicle>
    <vehicle id="4.25" depart="112.35" departLane="best" color="yellow">
        <route edges="N2TL TL2S"/>
    </vehicle>
    <vehicle id="2.36" depart="114.16" departLane="best" color="green">
        <route edges="S2TL TL2W"/>
    </vehicle>
    <vehicle id="4.26" depart="116.84" departLane="best" color="yellow">
        <route edges="N2TL TL2E"/>
    </vehicle>
    <vehicle id="3.20" depart="117.06" departLane="best" color="blue">
        <route edges="E2TL TL2S"/>
    </vehicle>
    <vehicle id="2.37" depart="117.33" departLane="best" color="green">
        <route edges="S2TL TL2E"/>
    </vehicle>
    <vehicle id="2.38" depart="120.50" departLane="best" color="green">
        <route edges="S2TL TL2N"/>
    </vehicle>
    <vehicle id="4.27" depart="121.34" departLane="best" color="yellow">
        <route edges="N2TL TL2S"/>
    </vehicle>
    <vehicle id="3.21" depart="122.91" departLane="best" color="blue">
        <route edges="E2TL TL2W"/>
    </vehicle>
    <vehicle id="2.39" depart="123.67" departLane="best" color="green">
        <route edges="S2TL TL2N"/>
    </vehicle>
    <vehicle id="1.9" depart="124.14" departLane="best" color="red">
        <route edges="W2TL TL2E"/>
    </vehicle>
    <vehicle id="4.28" depart="125.83" departLane="best" color="yellow">
        <route edges="N2TL TL2S"/>
    </vehicle>
    <vehicle id="2.40" depart="126.84" departLane="best" color="green">
        <route edges="S2TL TL2N"/>
    </vehicle>
    <vehicle id="3.22" depart="128.77" departLane="best" color="blue">
        <route edges="E2TL TL2W"/>
    </vehicle>
    <vehicle id="2.41" depart="130.01" departLane="best" color="green">
        <route edges="S2TL TL2N"/>
    </vehicle>
    <vehicle id="4.29" depart="130.33" departLane="best" color="yellow">
        <route edges="N2TL TL2W"/>
    </vehicle>
    <vehicle id="2.42" depart="133.18" departLane="best" color="green">
        <route edges="S2TL TL2N"/>
    </vehicle>
    <vehicle id="3.23" depart="134.62" departLane="best" color="blue">
        <route edges="E2TL TL2S"/>
    </vehicle>
    <vehicle id="4.30" depart="134.82" departLane="best" color="yellow">
        <route edges="N2TL TL2S"/>
    </vehicle>
    <vehicle id="2.43" depart="136.35" departLane="best" color="green">
        <route edges="S2TL TL2N"/>
    </vehicle>
    <vehicle id="1.10" depart="137.93" departLane="best" color="red">
        <route edges="W2TL TL2E"/>
    </vehicle>
    <vehicle id="4.31" depart="139.31" departLane="best" color="yellow">
        <route edges="N2TL TL2S"/>
    </vehicle>
    <vehicle id="2.44" depart="139.52" departLane="best" color="green">
        <route edges="S2TL TL2N"/>
    </vehicle>
    <vehicle id="3.24" depart="140.47" departLane="best" color="blue">
        <route edges="E2TL TL2S"/>
    </vehicle>
    <vehicle id="2.45" depart="142.70" departLane="best" color="green">
        <route edges="S2TL TL2N"/>
    </vehicle>
    <vehicle id="4.32" depart="143.81" departLane="best" color="yellow">
        <route edges="N2TL TL2S"/>
    </vehicle>
    <vehicle id="2.46" depart="145.87" departLane="best" color="green">
        <route edges="S2TL TL2N"/>
    </vehicle>
    <vehicle id="3.25" depart="146.33" departLane="best" color="blue">
        <route edges="E2TL TL2S"/>
    </vehicle>
    <vehicle id="4.33" depart="148.30" departLane="best" color="yellow">
        <route edges="N2TL TL2S"/>
    </vehicle>
    <vehicle id="2.47" depart="149.04" departLane="best" color="green">
        <route edges="S2TL TL2N"/>
    </vehicle>
    <vehicle id="1.11" depart="151.72" departLane="best" color="red">
        <route edges="W2TL TL2E"/>
    </vehicle>
    <vehicle id="3.26" depart="152.18" departLane="best" color="blue">
        <route edges="E2TL TL2S"/>
    </vehicle>
    <vehicle id="2.48" depart="152.21" departLane="best" color="green">
        <route edges="S2TL TL2E"/>
    </vehicle>
    <vehicle id="4.34" depart="152.80" departLane="best" color="yellow">
        <route edges="N2TL TL2S"/>
    </vehicle>
    <vehicle id="2.49" depart="155.38" departLane="best" color="green">
        <route edges="S2TL TL2N"/>
    </vehicle>
    <vehicle id="4.35" depart="157.29" departLane="best" color="yellow">
        <route edges="N2TL TL2W"/>
    </vehicle>
    <vehicle id="3.27" depart="158.03" departLane="best" color="blue">
        <route edges="E2TL TL2S"/>
    </vehicle>
    <vehicle id="2.50" depart="158.55" departLane="best" color="green">
        <route edges="S2TL TL2N"/>
    </vehicle>
    <vehicle id="2.51" depart="161.72" departLane="best" color="green">
        <route edges="S2TL TL2W"/>
    </vehicle>
    <vehicle id="4.36" depart="161.78" departLane="best" color="yellow">
        <route edges="N2TL TL2S"/>
    </vehicle>
    <vehicle id="3.28" depart="163.88" departLane="best" color="blue">
        <route edges="E2TL TL2S"/>
    </vehicle>
    <vehicle id="2.52" depart="164.89" departLane="best" color="green">
        <route edges="S2TL TL2N"/>
    </vehicle>
    <vehicle id="1.12" depart="165.52" departLane="best" color="red">
        <route edges="W2TL TL2N"/>
    </vehicle>
    <vehicle id="4.37" depart="166.28" departLane="best" color="yellow">
        <route edges="N2TL TL2S"/>
    </vehicle>
    <vehicle id="2.53" depart="168.06" departLane="best" color="green">
        <route edges="S2TL TL2N"/>
    </vehicle>
    <vehicle id="3.29" depart="169.74" departLane="best" color="blue">
        <route edges="E2TL TL2S"/>
    </vehicle>
    <vehicle id="4.38" depart="170.77" departLane="best" color="yellow">
        <route edges="N2TL TL2S"/>
    </vehicle>
    <vehicle id="2.54" depart="171.23" departLane="best" color="green">
        <route edges="S2TL TL2N"/>
    </vehicle>
    <vehicle id="2.55" depart="174.41" departLane="best" color="green">
        <route edges="S2TL TL2E"/>
    </vehicle>
    <vehicle id="4.39" depart="175.27" departLane="best" color="yellow">
        <route edges="N2TL TL2S"/>
    </vehicle>
    <vehicle id="3.30" depart="175.59" departLane="best" color="blue">
        <route edges="E2TL TL2S"/>
    </vehicle>
    <vehicle id="2.56" depart="177.58" departLane="best" color="green">
        <route edges="S2TL TL2N"/>
    </vehicle>
    <vehicle id="1.13" depart="179.31" departLane="best" color="red">
        <route edges="W2TL TL2S"/>
    </vehicle>
    <vehicle id="4.40" depart="179.76" departLane="best" color="yellow">
        <route edges="N2TL TL2S"/>
    </vehicle>
    <vehicle id="2.57" depart="180.75" departLane="best" color="green">
        <route edges="S2TL TL2E"/>
    </vehicle>
    <vehicle id="3.31" depart="181.44" departLane="best" color="blue">
        <route edges="E2TL TL2W"/>
    </vehicle>
    <vehicle id="2.58" depart="183.92" departLane="best" color="green">
        <route edges="S2TL TL2W"/>
    </vehicle>
    <vehicle id="4.41" depart="184.25" departLane="best" color="yellow">
        <route edges="N2TL TL2S"/>
    </vehicle>
    <vehicle id="2.59" depart="187.09" departLane="best" color="green">
        <route edges="S2TL TL2W"/>
    </vehicle>
    <vehicle id="3.32" depart="187.30" departLane="best" color="blue">
        <route edges="E2TL TL2S"/>
    </vehicle>
    <vehicle id="4.42" depart="188.75" departLane="best" color="yellow">
        <route edges="N2TL TL2S"/>
    </vehicle>
    <vehicle id="2.60" depart="190.26" departLane="best" color="green">
        <route edges="S2TL TL2N"/>
    </vehicle>
    <vehicle id="1.14" depart="193.10" departLane="best" color="red">
        <route edges="W2TL TL2N"/>
    </vehicle>
    <vehicle id="3.33" depart="193.15" departLane="best" color="blue">
        <route edges="E2TL TL2S"/>
    </vehicle>
    <vehicle id="4.43" depart="193.24" departLane="best" color="yellow">
        <route edges="N2TL TL2E"/>
    </vehicle>
    <vehicle id="2.61" depart="193.43" departLane="best" color="green">
        <route edges="S2TL TL2N"/>
    </vehicle>
    <vehicle id="2.62" depart="196.60" departLane="best" color="green">
        <route edges="S2TL TL2W"/>
    </vehicle>
    <vehicle id="4.44" depart="197.74" departLane="best" color="yellow">
        <route edges="N2TL TL2E"/>
    </vehicle>
    <vehicle id="3.34" depart="199.00" departLane="best" color="blue">
        <route edges="E2TL TL2S"/>
    </vehicle>
    <vehicle id="2.63" depart="199.77" departLane="best" color="green">
        <route edges="S2TL TL2W"/>
    </vehicle>
    <vehicle id="4.45" depart="202.23" departLane="best" color="yellow">
        <route edges="N2TL TL2S"/>
    </vehicle>
    <vehicle id="2.64" depart="202.94" departLane="best" color="green">
        <route edges="S2TL TL2N"/>
    </vehicle>
    <vehicle id="3.35" depart="204.86" departLane="best" color="blue">
        <route edges="E2TL TL2S"/>
    </vehicle>
    <vehicle id="2.65" depart="206.12" departLane="best" color="green">
        <route edges="S2TL TL2N"/>
    </vehicle>
    <vehicle id="4.46" depart="206.72" departLane="best" color="yellow">
        <route edges="N2TL TL2S"/>
    </vehicle>
    <vehicle id="1.15" depart="206.90" departLane="best" color="red">
        <route edges="W2TL TL2S"/>
    </vehicle>
    <vehicle id="2.66" depart="209.29" departLane="best" color="green">
        <route edges="S2TL TL2N"/>
    </vehicle>
    <vehicle id="3.36" depart="210.71" departLane="best" color="blue">
        <route edges="E2TL TL2W"/>
    </vehicle>
    <vehicle id="4.47" depart="211.22" departLane="best" color="yellow">
        <route edges="N2TL TL2S"/>
    </vehicle>
    <vehicle id="2.67" depart="212.46" departLane="best" color="green">
        <route edges="S2TL TL2N"/>
    </vehicle>
    <vehicle id="2.68" depart="215.63" departLane="best" color="green">
        <route edges="S2TL TL2N"/>
    </vehicle>
    <vehicle id="4.48" depart="215.71" departLane="best" color="yellow">
        <route edges="N2TL TL2S"/>
    </vehicle>
    <vehicle id="3.37" depart="216.56" departLane="best" color="blue">
        <route edges="E2TL TL2S"/>
    </vehicle>
    <vehicle id="2.69" depart="218.80" departLane="best" color="green">
        <route edges="S2TL TL2N"/>
    </vehicle>
    <vehicle id="4.49" depart="220.21" departLane="best" color="yellow">
        <route edges="N2TL TL2S"/>
    </vehicle>
    <vehicle id="1.16" depart="220.69" departLane="best" color="red">
        <route edges="W2TL TL2E"/>
    </vehicle>
    <vehicle id="2.70" depart="221.97" departLane="best" color="green">
        <route edges="S2TL TL2N"/>
    </vehicle>
    <vehicle id="3.38" depart="222.41" departLane="best" color="blue">
        <route edges="E2TL TL2S"/>
    </vehicle>
    <vehicle id="4.50" depart="224.70" departLane="best" color="yellow">
        <route edges="N2TL TL2S"/>
    </vehicle>
    <vehicle id="2.71" depart="225.14" departLane="best" color="green">
        <route edges="S2TL TL2N"/>
    </vehicle>
    <vehicle id="3.39" depart="228.27" departLane="best" color="blue">
        <route edges="E2TL TL2S"/>
    </vehicle>
    <vehicle id="2.72" depart="228.31" departLane="best" color="green">
        <route edges="S2TL TL2N"/>
    </vehicle>
    <vehicle id="4.51" depart="229.19" departLane="best" color="yellow">
        <route edges="N2TL TL2S"/>
    </vehicle>
    <vehicle id="2.73" depart="231.48" departLane="best" color="green">
        <route edges="S2TL TL2N"/>
    </vehicle>
    <vehicle id="4.52" depart="233.69" departLane="best" color="yellow">
        <route edges="N2TL TL2S"/>
    </vehicle>
    <vehicle id="3.40" depart="234.12" departLane="best" color="blue">
        <route edges="E2TL TL2N"/>
    </vehicle>
    <vehicle id="1.17" depart="234.48" departLane="best" color="red">
        <route edges="W2TL TL2E"/>
    </vehicle>
    <vehicle id="2.74" depart="234.65" departLane="best" color="green">
        <route edges="S2TL TL2N"/>
    </vehicle>
    <vehicle id="2.75" depart="237.83" departLane="best" color="green">
        <route edges="S2TL TL2N"/>
    </vehicle>
    <vehicle id="4.53" depart="238.18" departLane="best" color="yellow">
        <route edges="N2TL TL2W"/>
    </vehicle>
    <vehicle id="3.41" depart="239.97" departLane="best" color="blue">
        <route edges="E2TL TL2S"/>
    </vehicle>
    <vehicle id="2.76" depart="241.00" departLane="best" color="green">
        <route edges="S2TL TL2N"/>
    </vehicle>
    <vehicle id="4.54" depart="242.68" departLane="best" color="yellow">
        <route edges="N2TL TL2S"/>
    </vehicle>
    <vehicle id="2.77" depart="244.17" departLane="best" color="green">
        <route edges="S2TL TL2N"/>
    </vehicle>
    <vehicle id="3.42" depart="245.83" departLane="best" color="blue">
        <route edges="E2TL TL2S"/>
    </vehicle>
    <vehicle id="4.55" depart="247.17" departLane="best" color="yellow">
        <route edges="N2TL TL2S"/>
    </vehicle>
    <vehicle id="2.78" depart="247.34" departLane="best" color="green">
        <route edges="S2TL TL2W"/>
    </vehicle>
    <vehicle id="1.18" depart="248.27" departLane="best" color="red">
        <route edges="W2TL TL2E"/>
    </vehicle>
    <vehicle id="2.79" depart="250.51" departLane="best" color="green">
        <route edges="S2TL TL2W"/>
    </vehicle>
    <vehicle id="4.56" depart="251.66" departLane="best" color="yellow">
        <route edges="N2TL TL2S"/>
    </vehicle>
    <vehicle id="3.43" depart="251.68" departLane="best" color="blue">
        <route edges="E2TL TL2S"/>
    </vehicle>
    <vehicle id="2.80" depart="253.68" departLane="best" color="green">
        <route edges="S2TL TL2N"/>
    </vehicle>
    <vehicle id="4.57" depart="256.16" departLane="best" color="yellow">
        <route edges="N2TL TL2S"/>
    </vehicle>
    <vehicle id="2.81" depart="256.85" departLane="best" color="green">
        <route edges="S2TL TL2N"/>
    </vehicle>
    <vehicle id="3.44" depart="257.53" departLane="best" color="blue">
        <route edges="E2TL TL2N"/>
    </vehicle>
    <vehicle id="2.82" depart="260.02" departLane="best" color="green">
        <route edges="S2TL TL2N"/>
    </vehicle>
    <vehicle id="4.58" depart="260.65" departLane="best" color="yellow">
        <route edges="N2TL TL2S"/>
    </vehicle>
    <vehicle id="1.19" depart="262.07" departLane="best" color="red">
        <route edges="W2TL TL2N"/>
    </vehicle>
    <vehicle id="2.83" depart="263.19" departLane="best" color="green">
        <route edges="S2TL TL2N"/>
    </vehicle>
    <vehicle id="3.45" depart="263.39" departLane="best" color="blue">
        <route edges="E2TL TL2S"/>
    </vehicle>
    <vehicle id="4.59" depart="265.15" departLane="best" color="yellow">
        <route edges="N2TL TL2E"/>
    </vehicle>
    <vehicle id="2.84" depart="266.36" departLane="best" color="green">
        <route edges="S2TL TL2N"/>
    </vehicle>
    <vehicle id="3.46" depart="269.24" departLane="best" color="blue">
        <route edges="E2TL TL2N"/>
    </vehicle>
    <vehicle id="2.85" depart="269.54" departLane="best" color="green">
        <route edges="S2TL TL2N"/>
    </vehicle>
    <vehicle id="4.60" depart="269.64" departLane="best" color="yellow">
        <route edges="N2TL TL2S"/>
    </vehicle>
    <vehicle id="2.86" depart="272.71" departLane="best" color="green">
        <route edges="S2TL TL2N"/>
    </vehicle>
    <vehicle id="4.61" depart="274.13" departLane="best" color="yellow">
        <route edges="N2TL TL2S"/>
    </vehicle>
    <vehicle id="3.47" depart="275.09" departLane="best" color="blue">
        <route edges="E2TL TL2S"/>
    </vehicle>
    <vehicle id="1.20" depart="275.86" departLane="best" color="red">
        <route edges="W2TL TL2S"/>
    </vehicle>
    <vehicle id="2.87" depart="275.88" departLane="best" color="green">
        <route edges="S2TL TL2N"/>
    </vehicle>
    <vehicle id="4.62" depart="278.63" departLane="best" color="yellow">
        <route edges="N2TL TL2S"/>
    </vehicle>
    <vehicle id="2.88" depart="279.05" departLane="best" color="green">
        <route edges="S2TL TL2N"/>
    </vehicle>
    <vehicle id="3.48" depart="280.94" departLane="best" color="blue">
        <route edges="E2TL TL2N"/>
    </vehicle>
    <vehicle id="2.89" depart="282.22" departLane="best" color="green">
        <route edges="S2TL TL2N"/>
    </vehicle>
    <vehicle id="4.63" depart="283.12" departLane="best" color="yellow">
        <route edges="N2TL TL2S"/>
    </vehicle>
    <vehicle id="2.90" depart="285.39" departLane="best" color="green">
        <route edges="S2TL TL2N"/>
    </vehicle>
    <vehicle id="3.49" depart="286.80" departLane="best" color="blue">
        <route edges="E2TL TL2W"/>
    </vehicle>
    <vehicle id="4.64" depart="287.62" departLane="best" color="yellow">
        <route edges="N2TL TL2W"/>
    </vehicle>
    <vehicle id="2.91" depart="288.56" departLane="best" color="green">
        <route edges="S2TL TL2N"/>
    </vehicle>
    <vehicle id="1.21" depart="289.65" departLane="best" color="red">
        <route edges="W2TL TL2S"/>
    </vehicle>
    <vehicle id="2.92" depart="291.73" departLane="best" color="green">
        <route edges="S2TL TL2N"/>
    </vehicle>
    <vehicle id="4.65" depart="292.11" departLane="best" color="yellow">
        <route edges="N2TL TL2S"/>
    </vehicle>
    <vehicle id="3.50" depart="292.65" departLane="best" color="blue">
        <route edges="E2TL TL2S"/>
    </vehicle>
    <vehicle id="2.93" depart="294.90" departLane="best" color="green">
        <route edges="S2TL TL2N"/>
    </vehicle>
    <vehicle id="4.66" depart="296.60" departLane="best" color="yellow">
        <route edges="N2TL TL2S"/>
    </vehicle>
    <vehicle id="2.94" depart="298.07" departLane="best" color="green">
        <route edges="S2TL TL2N"/>
    </vehicle>
    <vehicle id="3.51" depart="298.50" departLane="best" color="blue">
        <route edges="E2TL TL2S"/>
    </vehicle>
    <vehicle id="4.67" depart="301.10" departLane="best" color="yellow">
        <route edges="N2TL TL2S"/>
    </vehicle>
    <vehicle id="2.95" depart="301.25" departLane="best" color="green">
        <route edges="S2TL TL2N"/>
    </vehicle>
    <vehicle id="1.22" depart="303.45" departLane="best" color="red">
        <route edges="W2TL TL2S"/>
    </vehicle>
    <vehicle id="3.52" depart="304.36" departLane="best" color="blue">
        <route edges="E2TL TL2S"/>
    </vehicle>
    <vehicle id="2.96" depart="304.42" departLane="best" color="green">
        <route edges="S2TL TL2E"/>
    </vehicle>