<?xml version="1.0" encoding="UTF-8"?>

<!-- generated on 2022-09-22 21:25:29 by Eclipse SUMO jtrrouter Version 1.14.1
<configuration xmlns:xsi="http://www.w3.org/2001/XMLSchema-instance" xsi:noNamespaceSchemaLocation="http://sumo.dlr.de/xsd/jtrrouterConfiguration.xsd">

    <input>
        <net-file value="environment.net.xml"/>
        <route-files value="demo.flow.xml"/>
        <turn-ratio-files value="demo.turn.xml"/>
    </input>

    <output>
        <output-file value="test.rou.xml"/>
    </output>

    <time>
        <begin value="0"/>
        <end value="3600"/>
    </time>

</configuration>
-->

<routes xmlns:xsi="http://www.w3.org/2001/XMLSchema-instance" xsi:noNamespaceSchemaLocation="http://sumo.dlr.de/xsd/routes_file.xsd">
    <vehicle id="1.0" depart="0.00" departLane="best" color="red">
        <route edges="W2TL TL2S"/>
    </vehicle>
    <vehicle id="2.0" depart="0.00" departLane="best" color="green">
        <route edges="S2TL TL2N"/>
    </vehicle>
    <vehicle id="3.0" depart="0.00" departLane="best" color="blue">
        <route edges="E2TL TL2N"/>
    </vehicle>
    <vehicle id="4.0" depart="0.00" departLane="best" color="yellow">
        <route edges="N2TL TL2S"/>
    </vehicle>
    <vehicle id="4.1" depart="2.12" departLane="best" color="yellow">
        <route edges="N2TL TL2S"/>
    </vehicle>
    <vehicle id="2.1" depart="2.51" departLane="best" color="green">
        <route edges="S2TL TL2E"/>
    </vehicle>
    <vehicle id="4.2" depart="4.23" departLane="best" color="yellow">
        <route edges="N2TL TL2S"/>
    </vehicle>
    <vehicle id="2.2" depart="5.02" departLane="best" color="green">
        <route edges="S2TL TL2N"/>
    </vehicle>
    <vehicle id="4.3" depart="6.35" departLane="best" color="yellow">
        <route edges="N2TL TL2S"/>
    </vehicle>
    <vehicle id="2.3" depart="7.52" departLane="best" color="green">
        <route edges="S2TL TL2N"/>
    </vehicle>
    <vehicle id="4.4" depart="8.46" departLane="best" color="yellow">
        <route edges="N2TL TL2E"/>
    </vehicle>
    <vehicle id="2.4" depart="10.03" departLane="best" color="green">
        <route edges="S2TL TL2N"/>
    </vehicle>
    <vehicle id="4.5" depart="10.58" departLane="best" color="yellow">
        <route edges="N2TL TL2S"/>
    </vehicle>
    <vehicle id="2.5" depart="12.54" departLane="best" color="green">
        <route edges="S2TL TL2N"/>
    </vehicle>
    <vehicle id="4.6" depart="12.70" departLane="best" color="yellow">
        <route edges="N2TL TL2S"/>
    </vehicle>
    <vehicle id="1.1" depart="13.79" departLane="best" color="red">
        <route edges="W2TL TL2E"/>
    </vehicle>
    <vehicle id="4.7" depart="14.81" departLane="best" color="yellow">
        <route edges="N2TL TL2E"/>
    </vehicle>
    <vehicle id="2.6" depart="15.05" departLane="best" color="green">
        <route edges="S2TL TL2N"/>
    </vehicle>
    <vehicle id="4.8" depart="16.93" departLane="best" color="yellow">
        <route edges="N2TL TL2S"/>
    </vehicle>
    <vehicle id="2.7" depart="17.56" departLane="best" color="green">
        <route edges="S2TL TL2N"/>
    </vehicle>
    <vehicle id="4.9" depart="19.04" departLane="best" color="yellow">
        <route edges="N2TL TL2E"/>
    </vehicle>
    <vehicle id="2.8" depart="20.06" departLane="best" color="green">
        <route edges="S2TL TL2N"/>
    </vehicle>
    <vehicle id="4.10" depart="21.16" departLane="best" color="yellow">
        <route edges="N2TL TL2S"/>
    </vehicle>
    <vehicle id="2.9" depart="22.57" departLane="best" color="green">
        <route edges="S2TL TL2N"/>
    </vehicle>
    <vehicle id="4.11" depart="23.28" departLane="best" color="yellow">
        <route edges="N2TL TL2W"/>
    </vehicle>
    <vehicle id="2.10" depart="25.08" departLane="best" color="green">
        <route edges="S2TL TL2N"/>
    </vehicle>
    <vehicle id="4.12" depart="25.39" departLane="best" color="yellow">
        <route edges="N2TL TL2S"/>
    </vehicle>
    <vehicle id="4.13" depart="27.51" departLane="best" color="yellow">
        <route edges="N2TL TL2S"/>
    </vehicle>
    <vehicle id="1.2" depart="27.59" departLane="best" color="red">
        <route edges="W2TL TL2N"/>
    </vehicle>
    <vehicle id="2.11" depart="27.59" departLane="best" color="green">
        <route edges="S2TL TL2N"/>
    </vehicle>
    <vehicle id="4.14" depart="29.62" departLane="best" color="yellow">
        <route edges="N2TL TL2E"/>
    </vehicle>
    <vehicle id="2.12" depart="30.10" departLane="best" color="green">
        <route edges="S2TL TL2N"/>
    </vehicle>
    <vehicle id="4.15" depart="31.74" departLane="best" color="yellow">
        <route edges="N2TL TL2S"/>
    </vehicle>
    <vehicle id="2.13" depart="32.60" departLane="best" color="green">
        <route edges="S2TL TL2N"/>
    </vehicle>
    <vehicle id="4.16" depart="33.86" departLane="best" color="yellow">
        <route edges="N2TL TL2W"/>
    </vehicle>
    <vehicle id="2.14" depart="35.11" departLane="best" color="green">
        <route edges="S2TL TL2E"/>
    </vehicle>
    <vehicle id="4.17" depart="35.97" departLane="best" color="yellow">
        <route edges="N2TL TL2S"/>
    </vehicle>
    <vehicle id="3.1" depart="36.00" departLane="best" color="blue">
        <route edges="E2TL TL2S"/>
    </vehicle>
    <vehicle id="2.15" depart="37.62" departLane="best" color="green">
        <route edges="S2TL TL2N"/>
    </vehicle>
    <vehicle id="4.18" depart="38.09" departLane="best" color="yellow">
        <route edges="N2TL TL2S"/>
    </vehicle>
    <vehicle id="2.16" depart="40.13" departLane="best" color="green">
        <route edges="S2TL TL2N"/>
    </vehicle>
    <vehicle id="4.19" depart="40.20" departLane="best" color="yellow">
        <route edges="N2TL TL2W"/>
    </vehicle>
    <vehicle id="1.3" depart="41.38" departLane="best" color="red">
        <route edges="W2TL TL2E"/>
    </vehicle>
    <vehicle id="4.20" depart="42.32" departLane="best" color="yellow">
        <route edges="N2TL TL2S"/>
    </vehicle>
    <vehicle id="2.17" depart="42.64" departLane="best" color="green">
        <route edges="S2TL TL2N"/>
    </vehicle>
    <vehicle id="4.21" depart="44.44" departLane="best" color="yellow">
        <route edges="N2TL TL2S"/>
    </vehicle>
    <vehicle id="2.18" depart="45.14" departLane="best" color="green">
        <route edges="S2TL TL2N"/>
    </vehicle>
    <vehicle id="4.22" depart="46.55" departLane="best" color="yellow">
        <route edges="N2TL TL2S"/>
    </vehicle>
    <vehicle id="2.19" depart="47.65" departLane="best" color="green">
        <route edges="S2TL TL2E"/>
    </vehicle>
    <vehicle id="4.23" depart="48.67" departLane="best" color="yellow">
        <route edges="N2TL TL2S"/>
    </vehicle>
    <vehicle id="2.20" depart="50.16" departLane="best" color="green">
        <route edges="S2TL TL2N"/>
    </vehicle>
    <vehicle id="4.24" depart="50.78" departLane="best" color="yellow">
        <route edges="N2TL TL2S"/>
    </vehicle>
    <vehicle id="2.21" depart="52.67" departLane="best" color="green">
        <route edges="S2TL TL2N"/>
    </vehicle>
    <vehicle id="4.25" depart="52.90" departLane="best" color="yellow">
        <route edges="N2TL TL2W"/>
    </vehicle>
    <vehicle id="4.26" depart="55.02" departLane="best" color="yellow">
        <route edges="N2TL TL2W"/>
    </vehicle>
    <vehicle id="1.4" depart="55.17" departLane="best" color="red">
        <route edges="W2TL TL2E"/>
    </vehicle>
    <vehicle id="2.22" depart="55.18" departLane="best" color="green">
        <route edges="S2TL TL2N"/>
    </vehicle>
    <vehicle id="4.27" depart="57.13" departLane="best" color="yellow">
        <route edges="N2TL TL2S"/>
    </vehicle>
    <vehicle id="2.23" depart="57.68" departLane="best" color="green">
        <route edges="S2TL TL2N"/>
    </vehicle>
    <vehicle id="4.28" depart="59.25" departLane="best" color="yellow">
        <route edges="N2TL TL2W"/>
    </vehicle>
    <vehicle id="2.24" depart="60.19" departLane="best" color="green">
        <route edges="S2TL TL2N"/>
    </vehicle>
    <vehicle id="4.29" depart="61.36" departLane="best" color="yellow">
        <route edges="N2TL TL2S"/>
    </vehicle>
    <vehicle id="2.25" depart="62.70" departLane="best" color="green">
        <route edges="S2TL TL2N"/>
    </vehicle>
    <vehicle id="4.30" depart="63.48" departLane="best" color="yellow">
        <route edges="N2TL TL2E"/>
    </vehicle>
    <vehicle id="2.26" depart="65.21" departLane="best" color="green">
        <route edges="S2TL TL2N"/>
    </vehicle>
    <vehicle id="4.31" depart="65.60" departLane="best" color="yellow">
        <route edges="N2TL TL2S"/>
    </vehicle>
    <vehicle id="4.32" depart="67.71" departLane="best" color="yellow">
        <route edges="N2TL TL2W"/>
    </vehicle>
    <vehicle id="2.27" depart="67.72" departLane="best" color="green">
        <route edges="S2TL TL2E"/>
    </vehicle>
    <vehicle id="1.5" depart="68.97" departLane="best" color="red">
        <route edges="W2TL TL2E"/>
    </vehicle>
    <vehicle id="4.33" depart="69.83" departLane="best" color="yellow">
        <route edges="N2TL TL2W"/>
    </vehicle>
    <vehicle id="2.28" depart="70.22" departLane="best" color="green">
        <route edges="S2TL TL2N"/>
    </vehicle>
    <vehicle id="4.34" depart="71.94" departLane="best" color="yellow">
        <route edges="N2TL TL2S"/>
    </vehicle>
    <vehicle id="3.2" depart="72.00" departLane="best" color="blue">
        <route edges="E2TL TL2N"/>
    </vehicle>
    <vehicle id="2.29" depart="72.73" departLane="best" color="green">
        <route edges="S2TL TL2N"/>
    </vehicle>
    <vehicle id="4.35" depart="74.06" departLane="best" color="yellow">
        <route edges="N2TL TL2S"/>
    </vehicle>
    <vehicle id="2.30" depart="75.24" departLane="best" color="green">
        <route edges="S2TL TL2N"/>
    </vehicle>
    <vehicle id="4.36" depart="76.18" departLane="best" color="yellow">
        <route edges="N2TL TL2E"/>
    </vehicle>
    <vehicle id="2.31" depart="77.75" departLane="best" color="green">
        <route edges="S2TL TL2E"/>
    </vehicle>
    <vehicle id="4.37" depart="78.29" departLane="best" color="yellow">
        <route edges="N2TL TL2S"/>
    </vehicle>
    <vehicle id="2.32" depart="80.26" departLane="best" color="green">
        <route edges="S2TL TL2N"/>
    </vehicle>
    <vehicle id="4.38" depart="80.41" departLane="best" color="yellow">
        <route edges="N2TL TL2S"/>
    </vehicle>
    <vehicle id="4.39" depart="82.52" departLane="best" color="yellow">
        <route edges="N2TL TL2S"/>
    </vehicle>
    <vehicle id="1.6" depart="82.76" departLane="best" color="red">
        <route edges="W2TL TL2S"/>
    </vehicle>
    <vehicle id="2.33" depart="82.76" departLane="best" color="green">
        <route edges="S2TL TL2N"/>
    </vehicle>
    <vehicle id="4.40" depart="84.64" departLane="best" color="yellow">
        <route edges="N2TL TL2S"/>
    </vehicle>
    <vehicle id="2.34" depart="85.27" departLane="best" color="green">
        <route edges="S2TL TL2N"/>
    </vehicle>
    <vehicle id="4.41" depart="86.76" departLane="best" color="yellow">
        <route edges="N2TL TL2S"/>
    </vehicle>
    <vehicle id="2.35" depart="87.78" departLane="best" color="green">
        <route edges="S2TL TL2N"/>
    </vehicle>
    <vehicle id="4.42" depart="88.87" departLane="best" color="yellow">
        <route edges="N2TL TL2S"/>
    </vehicle>
    <vehicle id="2.36" depart="90.29" departLane="best" color="green">
        <route edges="S2TL TL2N"/>
    </vehicle>
    <vehicle id="4.43" depart="90.99" departLane="best" color="yellow">
        <route edges="N2TL TL2S"/>
    </vehicle>
    <vehicle id="2.37" depart="92.80" departLane="best" color="green">
        <route edges="S2TL TL2W"/>
    </vehicle>
    <vehicle id="4.44" depart="93.10" departLane="best" color="yellow">
        <route edges="N2TL TL2E"/>
    </vehicle>
    <vehicle id="4.45" depart="95.22" departLane="best" color="yellow">
        <route edges="N2TL TL2S"/>
    </vehicle>
    <vehicle id="2.38" depart="95.30" departLane="best" color="green">
        <route edges="S2TL TL2E"/>
    </vehicle>
    <vehicle id="1.7" depart="96.55" departLane="best" color="red">
        <route edges="W2TL TL2S"/>
    </vehicle>
    <vehicle id="4.46" depart="97.34" departLane="best" color="yellow">
        <route edges="N2TL TL2S"/>
    </vehicle>
    <vehicle id="2.39" depart="97.81" departLane="best" color="green">
        <route edges="S2TL TL2W"/>
    </vehicle>
    <vehicle id="4.47" depart="99.45" departLane="best" color="yellow">
        <route edges="N2TL TL2S"/>
    </vehicle>
    <vehicle id="2.40" depart="100.32" departLane="best" color="green">
        <route edges="S2TL TL2N"/>
    </vehicle>
    <vehicle id="4.48" depart="101.57" departLane="best" color="yellow">
        <route edges="N2TL TL2S"/>
    </vehicle>
    <vehicle id="2.41" depart="102.83" departLane="best" color="green">
        <route edges="S2TL TL2N"/>
    </vehicle>
    <vehicle id="4.49" depart="103.68" departLane="best" color="yellow">
        <route edges="N2TL TL2S"/>
    </vehicle>
    <vehicle id="2.42" depart="105.34" departLane="best" color="green">
        <route edges="S2TL TL2N"/>
    </vehicle>
    <vehicle id="4.50" depart="105.80" departLane="best" color="yellow">
        <route edges="N2TL TL2W"/>
    </vehicle>
    <vehicle id="2.43" depart="107.84" departLane="best" color="green">
        <route edges="S2TL TL2N"/>
    </vehicle>
    <vehicle id="4.51" depart="107.92" departLane="best" color="yellow">
        <route edges="N2TL TL2S"/>
    </vehicle>
    <vehicle id="3.3" depart="108.00" departLane="best" color="blue">
        <route edges="E2TL TL2S"/>
    </vehicle>
    <vehicle id="4.52" depart="110.03" departLane="best" color="yellow">
        <route edges="N2TL TL2S"/>
    </vehicle>
    <vehicle id="1.8" depart="110.34" departLane="best" color="red">
        <route edges="W2TL TL2E"/>
    </vehicle>
    <vehicle id="2.44" depart="110.35" departLane="best" color="green">
        <route edges="S2TL TL2N"/>
    </vehicle>
    <vehicle id="4.53" depart="112.15" departLane="best" color="yellow">
        <route edges="N2TL TL2S"/>
    </vehicle>
    <vehicle id="2.45" depart="112.86" departLane="best" color="green">
        <route edges="S2TL TL2N"/>
    </vehicle>
    <vehicle id="4.54" depart="114.26" departLane="best" color="yellow">
        <route edges="N2TL TL2S"/>
    </vehicle>
    <vehicle id="2.46" depart="115.37" departLane="best" color="green">
        <route edges="S2TL TL2N"/>
    </vehicle>
    <vehicle id="4.55" depart="116.38" departLane="best" color="yellow">
        <route edges="N2TL TL2S"/>
    </vehicle>
    <vehicle id="2.47" depart="117.88" departLane="best" color="green">
        <route edges="S2TL TL2N"/>
    </vehicle>
    <vehicle id="4.56" depart="118.50" departLane="best" color="yellow">
        <route edges="N2TL TL2S"/>
    </vehicle>
    <vehicle id="2.48" depart="120.38" departLane="best" color="green">
        <route edges="S2TL TL2N"/>
    </vehicle>
    <vehicle id="4.57" depart="120.61" departLane="best" color="yellow">
        <route edges="N2TL TL2S"/>
    </vehicle>
    <vehicle id="4.58" depart="122.73" departLane="best" color="yellow">
        <route edges="N2TL TL2S"/>
    </vehicle>
    <vehicle id="2.49" depart="122.89" departLane="best" color="green">
        <route edges="S2TL TL2E"/>
    </vehicle>
    <vehicle id="1.9" depart="124.14" departLane="best" color="red">
        <route edges="W2TL TL2E"/>
    </vehicle>
    <vehicle id="4.59" depart="124.84" departLane="best" color="yellow">
        <route edges="N2TL TL2S"/>
    </vehicle>
    <vehicle id="2.50" depart="125.40" departLane="best" color="green">
        <route edges="S2TL TL2W"/>
    </vehicle>
    <vehicle id="4.60" depart="126.96" departLane="best" color="yellow">
        <route edges="N2TL TL2S"/>
    </vehicle>
    <vehicle id="2.51" depart="127.91" departLane="best" color="green">
        <route edges="S2TL TL2N"/>
    </vehicle>
    <vehicle id="4.61" depart="129.08" departLane="best" color="yellow">
        <route edges="N2TL TL2W"/>
    </vehicle>
    <vehicle id="2.52" depart="130.42" departLane="best" color="green">
        <route edges="S2TL TL2N"/>
    </vehicle>
    <vehicle id="4.62" depart="131.19" departLane="best" color="yellow">
        <route edges="N2TL TL2S"/>
    </vehicle>
    <vehicle id="2.53" depart="132.92" departLane="best" color="green">
        <route edges="S2TL TL2N"/>
    </vehicle>
    <vehicle id="4.63" depart="133.31" departLane="best" color="yellow">
        <route edges="N2TL TL2S"/>
    </vehicle>
    <vehicle id="4.64" depart="135.42" departLane="best" color="yellow">
        <route edges="N2TL TL2S"/>
    </vehicle>
    <vehicle id="2.54" depart="135.43" departLane="best" color="green">
        <route edges="S2TL TL2N"/>
    </vehicle>
    <vehicle id="4.65" depart="137.54" departLane="best" color="yellow">
        <route edges="N2TL TL2S"/>
    </vehicle>
    <vehicle id="1.10" depart="137.93" departLane="best" color="red">
        <route edges="W2TL TL2N"/>
    </vehicle>
    <vehicle id="2.55" depart="137.94" departLane="best" color="green">
        <route edges="S2TL TL2N"/>
    </vehicle>
    <vehicle id="4.66" depart="139.66" departLane="best" color="yellow">
        <route edges="N2TL TL2S"/>
    </vehicle>
    <vehicle id="2.56" depart="140.45" departLane="best" color="green">
        <route edges="S2TL TL2N"/>
    </vehicle>
    <vehicle id="4.67" depart="141.77" departLane="best" color="yellow">
        <route edges="N2TL TL2S"/>
    </vehicle>
    <vehicle id="2.57" depart="142.96" departLane="best" color="green">
        <route edges="S2TL TL2N"/>
    </vehicle>
    <vehicle id="4.68" depart="143.89" departLane="best" color="yellow">
        <route edges="N2TL TL2W"/>
    </vehicle>
    <vehicle id="3.4" depart="144.00" departLane="best" color="blue">
        <route edges="E2TL TL2S"/>
    </vehicle>
    <vehicle id="2.58" depart="145.46" departLane="best" color="green">
        <route edges="S2TL TL2E"/>
    </vehicle>
    <vehicle id="4.69" depart="146.00" departLane="best" color="yellow">
        <route edges="N2TL TL2W"/>
    </vehicle>
    <vehicle id="2.59" depart="147.97" departLane="best" color="green">
        <route edges="S2TL TL2W"/>
    </vehicle>
    <vehicle id="4.70" depart="148.12" departLane="best" color="yellow">
        <route edges="N2TL TL2S"/>
    </vehicle>
    <vehicle id="4.71" depart="150.24" departLane="best" color="yellow">
        <route edges="N2TL TL2W"/>
    </vehicle>
    <vehicle id="2.60" depart="150.48" departLane="best" color="green">
        <route edges="S2TL TL2N"/>
    </vehicle>
    <vehicle id="1.11" depart="151.72" departLane="best" color="red">
        <route edges="W2TL TL2E"/>
    </vehicle>
    <vehicle id="4.72" depart="152.35" departLane="best" color="yellow">
        <route edges="N2TL TL2S"/>
    </vehicle>
    <vehicle id="2.61" depart="152.99" departLane="best" color="green">
        <route edges="S2TL TL2N"/>
    </vehicle>
    <vehicle id="4.73" depart="154.47" departLane="best" color="yellow">
        <route edges="N2TL TL2S"/>
    </vehicle>
    <vehicle id="2.62" depart="155.50" departLane="best" color="green">
        <route edges="S2TL TL2E"/>
    </vehicle>
    <vehicle id="4.74" depart="156.58" departLane="best" color="yellow">
        <route edges="N2TL TL2S"/>
    </vehicle>
    <vehicle id="2.63" depart="158.00" departLane="best" color="green">
        <route edges="S2TL TL2W"/>
    </vehicle>
    <vehicle id="4.75" depart="158.70" departLane="best" color="yellow">
        <route edges="N2TL TL2E"/>
    </vehicle>
    <vehicle id="2.64" depart="160.51" departLane="best" color="green">
        <route edges="S2TL TL2N"/>
    </vehicle>
    <vehicle id="4.76" depart="160.82" departLane="best" color="yellow">
        <route edges="N2TL TL2W"/>
    </vehicle>
    <vehicle id="4.77" depart="162.93" departLane="best" color="yellow">
        <route edges="N2TL TL2S"/>
    </vehicle>
    <vehicle id="2.65" depart="163.02" departLane="best" color="green">
        <route edges="S2TL TL2N"/>
    </vehicle>
    <vehicle id="4.78" depart="165.05" departLane="best" color="yellow">
        <route edges="N2TL TL2S"/>
    </vehicle>
    <vehicle id="1.12" depart="165.52" departLane="best" color="red">
        <route edges="W2TL TL2S"/>
    </vehicle>
    <vehicle id="2.66" depart="165.53" departLane="best" color="green">
        <route edges="S2TL TL2N"/>
    </vehicle>
    <vehicle id="4.79" depart="167.16" departLane="best" color="yellow">
        <route edges="N2TL TL2W"/>
    </vehicle>
    <vehicle id="2.67" depart="168.04" departLane="best" color="green">
        <route edges="S2TL TL2N"/>
    </vehicle>
    <vehicle id="4.80" depart="169.28" departLane="best" color="yellow">
        <route edges="N2TL TL2W"/>
    </vehicle>
    <vehicle id="2.68" depart="170.54" departLane="best" color="green">
        <route edges="S2TL TL2N"/>
    </vehicle>
    <vehicle id="4.81" depart="171.40" departLane="best" color="yellow">
        <route edges="N2TL TL2S"/>
    </vehicle>
    <vehicle id="2.69" depart="173.05" departLane="best" color="green">
        <route edges="S2TL TL2N"/>
    </vehicle>
    <vehicle id="4.82" depart="173.51" departLane="best" color="yellow">
        <route edges="N2TL TL2S"/>
    </vehicle>
    <vehicle id="2.70" depart="175.56" departLane="best" color="green">
        <route edges="S2TL TL2N"/>
    </vehicle>
    <vehicle id="4.83" depart="175.63" departLane="best" color="yellow">
        <route edges="N2TL TL2S"/>
    </vehicle>
    <vehicle id="4.84" depart="177.74" departLane="best" color="yellow">
        <route edges="N2TL TL2S"/>
    </vehicle>
    <vehicle id="2.71" depart="178.07" departLane="best" color="green">
        <route edges="S2TL TL2N"/>
    </vehicle>
    <vehicle id="1.13" depart="179.31" departLane="best" color="red">
        <route edges="W2TL TL2S"/>
    </vehicle>
    <vehicle id="4.85" depart="179.86" departLane="best" color="yellow">
        <route edges="N2TL TL2S"/>
    </vehicle>
    <vehicle id="3.5" depart="180.00" departLane="best" color="blue">
        <route edges="E2TL TL2S"/>
    </vehicle>
    <vehicle id="2.72" depart="180.58" departLane="best" color="green">
        <route edges="S2TL TL2N"/>
    </vehicle>
    <vehicle id="4.86" depart="181.98" departLane="best" color="yellow">
        <route edges="N2TL TL2S"/>
    </vehicle>
    <vehicle id="2.73" depart="183.08" departLane="best" color="green">
        <route edges="S2TL TL2N"/>
    </vehicle>
    <vehicle id="4.87" depart="184.09" departLane="best" color="yellow">
        <route edges="N2TL TL2S"/>
    </vehicle>
    <vehicle id="2.74" depart="185.59" departLane="best" color="green">
        <route edges="S2TL TL2N"/>
    </vehicle>
    <vehicle id="4.88" depart="186.21" departLane="best" color="yellow">
        <route edges="N2TL TL2S"/>
    </vehicle>
    <vehicle id="2.75" depart="188.10" departLane="best" color="green">
        <route edges="S2TL TL2E"/>
    </vehicle>
    <vehicle id="4.89" depart="188.32" departLane="best" color="yellow">
        <route edges="N2TL TL2S"/>
    </vehicle>
    <vehicle id="4.90" depart="190.44" departLane="best" color="yellow">
        <route edges="N2TL TL2S"/>
    </vehicle>
    <vehicle id="2.76" depart="190.61" departLane="best" color="green">
        <route edges="S2TL TL2N"/>
    </vehicle>
    <vehicle id="4.91" depart="192.56" departLane="best" color="yellow">
        <route edges="N2TL TL2W"/>
    </vehicle>
    <vehicle id="1.14" depart="193.10" departLane="best" color="red">
        <route edges="W2TL TL2E"/>
    </vehicle>
    <vehicle id="2.77" depart="193.12" departLane="best" color="green">
        <route edges="S2TL TL2N"/>
    </vehicle>
    <vehicle id="4.92" depart="194.67" departLane="best" color="yellow">
        <route edges="N2TL TL2S"/>
    </vehicle>
    <vehicle id="2.78" depart="195.62" departLane="best" color="green">
        <route edges="S2TL TL2N"/>
    </vehicle>
    <vehicle id="4.93" depart="196.79" departLane="best" color="yellow">
        <route edges="N2TL TL2S"/>
    </vehicle>
    <vehicle id="2.79" depart="198.13" departLane="best" color="green">
        <route edges="S2TL TL2N"/>
    </vehicle>
    <vehicle id="4.94" depart="198.90" departLane="best" color="yellow">
        <route edges="N2TL TL2W"/>
    </vehicle>
    <vehicle id="2.80" depart="200.64" departLane="best" color="green">
        <route edges="S2TL TL2N"/>
    </vehicle>
    <vehicle id="4.95" depart="201.02" departLane="best" color="yellow">
        <route edges="N2TL TL2W"/>
    </vehicle>
    <vehicle id="4.96" depart="203.14" departLane="best" color="yellow">
        <route edges="N2TL TL2S"/>
    </vehicle>
    <vehicle id="2.81" depart="203.15" departLane="best" color="green">
        <route edges="S2TL TL2N"/>
    </vehicle>
    <vehicle id="4.97" depart="205.25" departLane="best" color="yellow">
        <route edges="N2TL TL2S"/>
    </vehicle>
    <vehicle id="2.82" depart="205.66" departLane="best" color="green">
        <route edges="S2TL TL2E"/>
    </vehicle>
    <vehicle id="1.15" depart="206.90" departLane="best" color="red">
        <route edges="W2TL TL2N"/>
    </vehicle>
    <vehicle id="4.98" depart="207.37" departLane="best" color="yellow">
        <route edges="N2TL TL2E"/>
    </vehicle>
    <vehicle id="2.83" depart="208.16" departLane="best" color="green">
        <route edges="S2TL TL2N"/>
    </vehicle>
    <vehicle id="4.99" depart="209.48" departLane="best" color="yellow">
        <route edges="N2TL TL2S"/>
    </vehicle>
    <vehicle id="2.84" depart="210.67" departLane="best" color="green">
        <route edges="S2TL TL2N"/>
    </vehicle>
    <vehicle id="4.100" depart="211.60" departLane="best" color="yellow">
        <route edges="N2TL TL2S"/>
    </vehicle>
    <vehicle id="2.85" depart="213.18" departLane="best" color="green">
        <route edges="S2TL TL2N"/>
    </vehicle>
    <vehicle id="4.101" depart="213.72" departLane="best" color="yellow">
        <route edges="N2TL TL2E"/>
    </vehicle>
    <vehicle id="2.86" depart="215.69" departLane="best" color="green">
        <route edges="S2TL TL2N"/>
    </vehicle>
    <vehicle id="4.102" depart="215.83" departLane="best" color="yellow">
        <route edges="N2TL TL2S"/>
    </vehicle>
    <vehicle id="3.6" depart="216.00" departLane="best" color="blue">
        <route edges="E2TL TL2S"/>
    </vehicle>
    <vehicle id="4.103" depart="217.95" departLane="best" color="yellow">
        <route edges="N2TL TL2S"/>
    </vehicle>
    <vehicle id="2.87" depart="218.20" departLane="best" color="green">
        <route edges="S2TL TL2N"/>
    </vehicle>
    <vehicle id="4.104" depart="220.06" departLane="best" color="yellow">
        <route edges="N2TL TL2S"/>
    </vehicle>
    <vehicle id="1.16" depart="220.69" departLane="best" color="red">
        <route edges="W2TL TL2E"/>
    </vehicle>
    <vehicle id="2.88" depart="220.70" departLane="best" color="green">
        <route edges="S2TL TL2W"/>
    </vehicle>
    <vehicle id="4.105" depart="222.18" departLane="best" color="yellow">
        <route edges="N2TL TL2S"/>
    </vehicle>
    <vehicle id="2.89" depart="223.21" departLane="best" color="green">
        <route edges="S2TL TL2E"/>
    </vehicle>
    <vehicle id="4.106" depart="224.30" departLane="best" color="yellow">
        <route edges="N2TL TL2S"/>
    </vehicle>
    <vehicle id="2.90" depart="225.72" departLane="best" color="green">
        <route edges="S2TL TL2E"/>
    </vehicle>
    <vehicle id="4.107" depart="226.41" departLane="best" color="yellow">
        <route edges="N2TL TL2S"/>
    </vehicle>
    <vehicle id="2.91" depart="228.23" departLane="best" color="green">
        <route edges="S2TL TL2N"/>
    </vehicle>
    <vehicle id="4.108" depart="228.53" departLane="best" color="yellow">
        <route edges="N2TL TL2S"/>
    </vehicle>
    <vehicle id="4.109" depart="230.64" departLane="best" color="yellow">
        <route edges="N2TL TL2W"/>
    </vehicle>
    <vehicle id="2.92" depart="230.74" departLane="best" color="green">
        <route edges="S2TL TL2W"/>
    </vehicle>
    <vehicle id="4.110" depart="232.76" departLane="best" color="yellow">
        <route edges="N2TL TL2S"/>
    </vehicle>
    <vehicle id="2.93" depart="233.24" departLane="best" color="green">
        <route edges="S2TL TL2W"/>
    </vehicle>
    <vehicle id="1.17" depart="234.48" departLane="best" color="red">
        <route edges="W2TL TL2E"/>
    </vehicle>
    <vehicle id="4.111" depart="234.88" departLane="best" color="yellow">
        <route edges="N2TL TL2S"/>
    </vehicle>
    <vehicle id="2.94" depart="235.75" departLane="best" color="green">
        <route edges="S2TL TL2N"/>
    </vehicle>
    <vehicle id="4.112" depart="236.99" departLane="best" color="yellow">
        <route edges="N2TL TL2S"/>
    </vehicle>
    <vehicle id="2.95" depart="238.26" departLane="best" color="green">
        <route edges="S2TL TL2N"/>
    </vehicle>
    <vehicle id="4.113" depart="239.11" departLane="best" color="yellow">
        <route edges="N2TL TL2S"/>
    </vehicle>
    <vehicle id="2.96" depart="240.77" departLane="best" color="green">
        <route edges="S2TL TL2N"/>
    </vehicle>
    <vehicle id="4.114" depart="241.22" departLane="best" color="yellow">
        <route edges="N2TL TL2S"/>
    </vehicle>
    <vehicle id="2.97" depart="243.28" departLane="best" color="green">
        <route edges="S2TL TL2N"/>
    </vehicle>
    <vehicle id="4.115" depart="243.34" departLane="best" color="yellow">
        <route edges="N2TL TL2W"/>
    </vehicle>
    <vehicle id="4.116" depart="245.46" departLane="best" color="yellow">
        <route edges="N2TL TL2S"/>
    </vehicle>